Version 4
SHEET 1 880 680
WIRE -144 -80 -320 -80
WIRE 208 -48 80 -48
WIRE 80 -32 80 -48
WIRE -320 -16 -320 -80
WIRE -144 16 -144 -16
WIRE -96 16 -144 16
WIRE -144 48 -144 16
WIRE -320 80 -320 64
WIRE 80 80 80 48
WIRE -96 112 -96 16
WIRE 208 112 208 -48
WIRE 80 128 16 128
WIRE -144 144 -320 144
WIRE 80 144 80 128
WIRE 128 144 80 144
WIRE -320 160 -320 144
WIRE 400 176 304 176
WIRE 448 176 400 176
WIRE 64 192 -80 192
WIRE 128 208 112 208
WIRE -144 256 -144 208
WIRE -96 256 -96 144
WIRE -96 256 -144 256
WIRE -320 272 -320 240
WIRE -144 288 -144 256
WIRE 64 288 64 256
WIRE 112 288 112 208
WIRE 112 288 64 288
WIRE 64 304 64 288
WIRE -80 320 -80 192
WIRE 208 320 208 240
WIRE -144 400 -144 352
WIRE 64 416 64 368
FLAG -80 400 0
FLAG -320 272 0
FLAG -320 80 0
FLAG -144 112 0
FLAG -144 400 0
FLAG 64 416 0
FLAG 208 320 0
FLAG 80 80 0
FLAG 400 176 Vout
IOPIN 400 176 Out
SYMBOL 74LS00 176 176 R0
SYMATTR InstName X1
SYMBOL 74hc08 -48 64 R0
SYMATTR InstName U1
SYMBOL voltage -320 -32 R0
SYMATTR InstName V1
SYMATTR Value 8 V
SYMBOL voltage -320 144 R0
SYMATTR InstName V2
SYMATTR Value 8 V
SYMBOL voltage -80 304 R0
SYMATTR InstName V3
SYMATTR Value 8 V
SYMBOL r -144 -80 R90
SYMATTR InstName R1
SYMATTR Value 1K
SYMBOL r -144 48 R90
SYMATTR InstName R2
SYMATTR Value 2k
SYMBOL r -144 144 R90
SYMATTR InstName R3
SYMATTR Value 1k
SYMBOL r -144 288 R90
SYMATTR InstName R4
SYMATTR Value 2k
SYMBOL r 64 192 R90
SYMATTR InstName R5
SYMATTR Value 1k
SYMBOL r 64 304 R90
SYMATTR InstName R6
SYMATTR Value 2k
SYMBOL voltage 80 -48 R0
SYMATTR InstName V4
SYMATTR Value 6 V
TEXT 376 40 Left 2 !.include 74HC_v.lib\n.tran 0 5 0 0.1\nVvcc vcc 0 5V
